Version,
    9.3;                      !- version_identifier

Building,
    NONE,                     !- name
    0,                        !- north_axis
    Suburbs,                  !- terrain
    0.039999999,              !- loads_convergence_tolerance_value
    0.4,                      !- temperature_convergence_tolerance_value
    FullInteriorAndExterior,  !- solar_distribution
    25,                       !- maximum_number_of_warmup_days
    6;                        !- minimum_number_of_warmup_days

Timestep,
    6;                        !- number_of_timesteps_per_hour

SurfaceConvectionAlgorithm:Inside,
    TARP;                     !- algorithm

SurfaceConvectionAlgorithm:Outside,
    DOE-2;                    !- algorithm

HeatBalanceAlgorithm,
    ConductionTransferFunction; !- algorithm

SimulationControl,
    No,                       !- do_zone_sizing_calculation
    No,                       !- do_system_sizing_calculation
    No,                       !- do_plant_sizing_calculation
    Yes,                      !- run_simulation_for_sizing_periods
    No;                       !- run_simulation_for_weather_file_run_periods

RunPeriod,
    Run Period 1,             !- name
    1,                        !- begin_month
    14,                       !- begin_day_of_month
    ,                         !- begin_year
    1,                        !- end_month
    14,                       !- end_day_of_month
    ,                         !- end_year
    Tuesday,                  !- day_of_week_for_start_day
    Yes,                      !- use_weather_file_holidays_and_special_days
    Yes,                      !- use_weather_file_daylight_saving_period
    No,                       !- apply_weekend_holiday_rule
    Yes,                      !- use_weather_file_rain_indicators
    Yes;                      !- use_weather_file_snow_indicators

RunPeriod,
    Run Period 2,             !- name
    7,                        !- begin_month
    7,                        !- begin_day_of_month
    ,                         !- begin_year
    7,                        !- end_month
    7,                        !- end_day_of_month
    ,                         !- end_year
    Tuesday,                  !- day_of_week_for_start_day
    Yes,                      !- use_weather_file_holidays_and_special_days
    Yes,                      !- use_weather_file_daylight_saving_period
    No,                       !- apply_weekend_holiday_rule
    Yes,                      !- use_weather_file_rain_indicators
    No;                       !- use_weather_file_snow_indicators

Site:Location,
    CHICAGO_IL_USA TMY2-94846, !- name
    42.0,                     !- latitude
    -87.88,                   !- longitude
    -6.0,                     !- time_zone
    190.0;                    !- elevation

SizingPeriod:DesignDay,
    CHICAGO_IL_USA Annual Heating 99% Design Conditions DB, !- name
    1,                        !- month
    21,                       !- day_of_month
    WinterDesignDay,          !- day_type
    -17.3,                    !- maximum_dry_bulb_temperature
    0.0,                      !- daily_dry_bulb_temperature_range
    ,                         !- dry_bulb_temperature_range_modifier_type
    ,                         !- dry_bulb_temperature_range_modifier_day_schedule_name
    Wetbulb,                  !- humidity_condition_type
    -17.3,                    !- wetbulb_or_dewpoint_at_maximum_dry_bulb
    ,                         !- humidity_condition_day_schedule_name
    ,                         !- humidity_ratio_at_maximum_dry_bulb
    ,                         !- enthalpy_at_maximum_dry_bulb
    ,                         !- daily_wet_bulb_temperature_range
    99063.0,                  !- barometric_pressure
    4.9,                      !- wind_speed
    270,                      !- wind_direction
    No,                       !- rain_indicator
    No,                       !- snow_indicator
    No,                       !- daylight_saving_time_indicator
    ASHRAEClearSky,           !- solar_model_indicator
    ,                         !- beam_solar_day_schedule_name
    ,                         !- diffuse_solar_day_schedule_name
    ,                         !- ashrae_clear_sky_optical_depth_for_beam_irradiance_taub_
    ,                         !- ashrae_clear_sky_optical_depth_for_diffuse_irradiance_taud_
    0.0;                      !- sky_clearness

SizingPeriod:DesignDay,
    CHICAGO_IL_USA Annual Cooling 1% Design Conditions DB/MCWB, !- name
    7,                        !- month
    21,                       !- day_of_month
    SummerDesignDay,          !- day_type
    31.5,                     !- maximum_dry_bulb_temperature
    10.7,                     !- daily_dry_bulb_temperature_range
    ,                         !- dry_bulb_temperature_range_modifier_type
    ,                         !- dry_bulb_temperature_range_modifier_day_schedule_name
    Wetbulb,                  !- humidity_condition_type
    23.0,                     !- wetbulb_or_dewpoint_at_maximum_dry_bulb
    ,                         !- humidity_condition_day_schedule_name
    ,                         !- humidity_ratio_at_maximum_dry_bulb
    ,                         !- enthalpy_at_maximum_dry_bulb
    ,                         !- daily_wet_bulb_temperature_range
    99063.0,                  !- barometric_pressure
    5.3,                      !- wind_speed
    230,                      !- wind_direction
    No,                       !- rain_indicator
    No,                       !- snow_indicator
    No,                       !- daylight_saving_time_indicator
    ASHRAEClearSky,           !- solar_model_indicator
    ,                         !- beam_solar_day_schedule_name
    ,                         !- diffuse_solar_day_schedule_name
    ,                         !- ashrae_clear_sky_optical_depth_for_beam_irradiance_taub_
    ,                         !- ashrae_clear_sky_optical_depth_for_diffuse_irradiance_taud_
    1.0;                      !- sky_clearness

Site:GroundTemperature:BuildingSurface,
    20.03,                    !- january_ground_temperature
    20.03,                    !- february_ground_temperature
    20.13,                    !- march_ground_temperature
    20.3,                     !- april_ground_temperature
    20.43,                    !- may_ground_temperature
    20.52,                    !- june_ground_temperature
    20.62,                    !- july_ground_temperature
    20.77,                    !- august_ground_temperature
    20.78,                    !- september_ground_temperature
    20.55,                    !- october_ground_temperature
    20.44,                    !- november_ground_temperature
    20.2;                     !- december_ground_temperature

Material,
    A1 - 1 IN STUCCO,         !- name
    Smooth,                   !- roughness
    0.025389841,              !- thickness
    0.6918309,                !- conductivity
    1858.142,                 !- density
    836.8,                    !- specific_heat
    0.9,                      !- thermal_absorptance
    0.92,                     !- solar_absorptance
    0.92;                     !- visible_absorptance

Material,
    C4 - 4 IN COMMON BRICK,   !- name
    Rough,                    !- roughness
    0.1014984,                !- thickness
    0.7264224,                !- conductivity
    1922.216,                 !- density
    836.8,                    !- specific_heat
    0.9,                      !- thermal_absorptance
    0.76,                     !- solar_absorptance
    0.76;                     !- visible_absorptance

Material,
    E1 - 3 / 4 IN PLASTER OR GYP BOARD, !- name
    Smooth,                   !- roughness
    0.01905,                  !- thickness
    0.7264224,                !- conductivity
    1601.846,                 !- density
    836.8,                    !- specific_heat
    0.9,                      !- thermal_absorptance
    0.92,                     !- solar_absorptance
    0.92;                     !- visible_absorptance

Material,
    C6 - 8 IN CLAY TILE,      !- name
    Smooth,                   !- roughness
    0.2033016,                !- thickness
    0.5707605,                !- conductivity
    1121.292,                 !- density
    836.8,                    !- specific_heat
    0.9,                      !- thermal_absorptance
    0.82,                     !- solar_absorptance
    0.82;                     !- visible_absorptance

Material,
    C10 - 8 IN HW CONCRETE,   !- name
    MediumRough,              !- roughness
    0.2033016,                !- thickness
    1.729577,                 !- conductivity
    2242.585,                 !- density
    836.8,                    !- specific_heat
    0.9,                      !- thermal_absorptance
    0.65,                     !- solar_absorptance
    0.65;                     !- visible_absorptance

Material,
    E2 - 1 / 2 IN SLAG OR STONE, !- name
    Rough,                    !- roughness
    0.012710161,              !- thickness
    1.435549,                 !- conductivity
    881.0155,                 !- density
    1673.6,                   !- specific_heat
    0.9,                      !- thermal_absorptance
    0.55,                     !- solar_absorptance
    0.55;                     !- visible_absorptance

Material,
    E3 - 3 / 8 IN FELT AND MEMBRANE, !- name
    Rough,                    !- roughness
    0.0095402403,             !- thickness
    0.1902535,                !- conductivity
    1121.292,                 !- density
    1673.6,                   !- specific_heat
    0.9,                      !- thermal_absorptance
    0.75,                     !- solar_absorptance
    0.75;                     !- visible_absorptance

Material,
    B5 - 1 IN DENSE INSULATION, !- name
    VeryRough,                !- roughness
    0.025389841,              !- thickness
    0.04323943,               !- conductivity
    91.30524,                 !- density
    836.8,                    !- specific_heat
    0.9,                      !- thermal_absorptance
    0.5,                      !- solar_absorptance
    0.5;                      !- visible_absorptance

Material,
    C12 - 2 IN HW CONCRETE,   !- name
    MediumRough,              !- roughness
    0.050901599,              !- thickness
    1.729577,                 !- conductivity
    2242.585,                 !- density
    836.8,                    !- specific_heat
    0.9,                      !- thermal_absorptance
    0.65,                     !- solar_absorptance
    0.65;                     !- visible_absorptance

WindowMaterial:Glazing,
    WIN-LAY-GLASS-LIGHT,      !- name
    SpectralAverage,          !- optical_data_type
    ,                         !- window_glass_spectral_data_set_name
    0.003,                    !- thickness
    0.9,                      !- solar_transmittance_at_normal_incidence
    0.031,                    !- front_side_solar_reflectance_at_normal_incidence
    0.031,                    !- back_side_solar_reflectance_at_normal_incidence
    0.9,                      !- visible_transmittance_at_normal_incidence
    0.05,                     !- front_side_visible_reflectance_at_normal_incidence
    0.05,                     !- back_side_visible_reflectance_at_normal_incidence
    0.0,                      !- infrared_transmittance_at_normal_incidence
    0.84,                     !- front_side_infrared_hemispherical_emissivity
    0.84,                     !- back_side_infrared_hemispherical_emissivity
    0.9;                      !- conductivity

Construction,
    EXTWALL80,                !- name
    A1 - 1 IN STUCCO,         !- outside_layer
    C4 - 4 IN COMMON BRICK,   !- layer_2
    E1 - 3 / 4 IN PLASTER OR GYP BOARD; !- layer_3

Construction,
    PARTITION06,              !- name
    E1 - 3 / 4 IN PLASTER OR GYP BOARD, !- outside_layer
    C6 - 8 IN CLAY TILE,      !- layer_2
    E1 - 3 / 4 IN PLASTER OR GYP BOARD; !- layer_3

Construction,
    FLOOR SLAB 8 IN,          !- name
    C10 - 8 IN HW CONCRETE;   !- outside_layer

Construction,
    ROOF34,                   !- name
    E2 - 1 / 2 IN SLAG OR STONE, !- outside_layer
    E3 - 3 / 8 IN FELT AND MEMBRANE, !- layer_2
    B5 - 1 IN DENSE INSULATION, !- layer_3
    C12 - 2 IN HW CONCRETE;   !- layer_4

Construction,
    WIN-CON-LIGHT,            !- name
    WIN-LAY-GLASS-LIGHT;      !- outside_layer

Zone,
    West Zone,                !- name
    0,                        !- direction_of_relative_north
    0,                        !- x_origin
    0,                        !- y_origin
    0,                        !- z_origin
    1,                        !- type
    1,                        !- multiplier
    autocalculate,            !- ceiling_height
    autocalculate;            !- volume

Zone,
    EAST ZONE,                !- name
    0,                        !- direction_of_relative_north
    0,                        !- x_origin
    0,                        !- y_origin
    0,                        !- z_origin
    1,                        !- type
    1,                        !- multiplier
    autocalculate,            !- ceiling_height
    autocalculate;            !- volume

Zone,
    NORTH ZONE,               !- name
    0,                        !- direction_of_relative_north
    0,                        !- x_origin
    0,                        !- y_origin
    0,                        !- z_origin
    1,                        !- type
    1,                        !- multiplier
    autocalculate,            !- ceiling_height
    autocalculate;            !- volume

GlobalGeometryRules,
    UpperLeftCorner,          !- starting_vertex_position
    CounterClockWise,         !- vertex_entry_direction
    World;                    !- coordinate_system

BuildingSurface:Detailed,
    Zn001:Wall001,            !- name
    Wall,                     !- surface_type
    EXTWALL80,                !- construction_name
    West Zone,                !- zone_name
    Outdoors,                 !- outside_boundary_condition
    ,                         !- outside_boundary_condition_object
    SunExposed,               !- sun_exposure
    WindExposed,              !- wind_exposure
    0.5,                      !- view_factor_to_ground
    4,                        !- number_of_vertices
    0,                        !- vertex_x_coordinate 1
    0,                        !- vertex_y_coordinate 1
    3.048,                    !- vertex_z_coordinate 1
    0,                        !- vertex_x_coordinate 2
    0,                        !- vertex_y_coordinate 2
    0,                        !- vertex_z_coordinate 2
    6.096,                    !- vertex_x_coordinate 3
    0,                        !- vertex_y_coordinate 3
    0,                        !- vertex_z_coordinate 3
    6.096,                    !- vertex_x_coordinate 4
    0,                        !- vertex_y_coordinate 4
    3.048;                    !- vertex_z_coordinate 4

BuildingSurface:Detailed,
    Zn001:Wall002,            !- name
    Wall,                     !- surface_type
    EXTWALL80,                !- construction_name
    West Zone,                !- zone_name
    Outdoors,                 !- outside_boundary_condition
    ,                         !- outside_boundary_condition_object
    SunExposed,               !- sun_exposure
    WindExposed,              !- wind_exposure
    0.5,                      !- view_factor_to_ground
    4,                        !- number_of_vertices
    0,                        !- vertex_x_coordinate 1
    6.096,                    !- vertex_y_coordinate 1
    3.048,                    !- vertex_z_coordinate 1
    0,                        !- vertex_x_coordinate 2
    6.096,                    !- vertex_y_coordinate 2
    0,                        !- vertex_z_coordinate 2
    0,                        !- vertex_x_coordinate 3
    0,                        !- vertex_y_coordinate 3
    0,                        !- vertex_z_coordinate 3
    0,                        !- vertex_x_coordinate 4
    0,                        !- vertex_y_coordinate 4
    3.048;                    !- vertex_z_coordinate 4

BuildingSurface:Detailed,
    Zn001:Wall003,            !- name
    Wall,                     !- surface_type
    PARTITION06,              !- construction_name
    West Zone,                !- zone_name
    Surface,                  !- outside_boundary_condition
    Zn003:Wall004,            !- outside_boundary_condition_object
    NoSun,                    !- sun_exposure
    NoWind,                   !- wind_exposure
    0.5,                      !- view_factor_to_ground
    4,                        !- number_of_vertices
    6.096,                    !- vertex_x_coordinate 1
    6.096,                    !- vertex_y_coordinate 1
    3.048,                    !- vertex_z_coordinate 1
    6.096,                    !- vertex_x_coordinate 2
    6.096,                    !- vertex_y_coordinate 2
    0,                        !- vertex_z_coordinate 2
    0,                        !- vertex_x_coordinate 3
    6.096,                    !- vertex_y_coordinate 3
    0,                        !- vertex_z_coordinate 3
    0,                        !- vertex_x_coordinate 4
    6.096,                    !- vertex_y_coordinate 4
    3.048;                    !- vertex_z_coordinate 4

BuildingSurface:Detailed,
    Zn001:Wall004,            !- name
    Wall,                     !- surface_type
    PARTITION06,              !- construction_name
    West Zone,                !- zone_name
    Surface,                  !- outside_boundary_condition
    Zn002:Wall004,            !- outside_boundary_condition_object
    NoSun,                    !- sun_exposure
    NoWind,                   !- wind_exposure
    0.5,                      !- view_factor_to_ground
    4,                        !- number_of_vertices
    6.096,                    !- vertex_x_coordinate 1
    0,                        !- vertex_y_coordinate 1
    3.048,                    !- vertex_z_coordinate 1
    6.096,                    !- vertex_x_coordinate 2
    0,                        !- vertex_y_coordinate 2
    0,                        !- vertex_z_coordinate 2
    6.096,                    !- vertex_x_coordinate 3
    6.096,                    !- vertex_y_coordinate 3
    0,                        !- vertex_z_coordinate 3
    6.096,                    !- vertex_x_coordinate 4
    6.096,                    !- vertex_y_coordinate 4
    3.048;                    !- vertex_z_coordinate 4

BuildingSurface:Detailed,
    Zn001:Flr001,             !- name
    Floor,                    !- surface_type
    FLOOR SLAB 8 IN,          !- construction_name
    West Zone,                !- zone_name
    Surface,                  !- outside_boundary_condition
    Zn001:Flr001,             !- outside_boundary_condition_object
    NoSun,                    !- sun_exposure
    NoWind,                   !- wind_exposure
    1.0,                      !- view_factor_to_ground
    4,                        !- number_of_vertices
    0,                        !- vertex_x_coordinate 1
    0,                        !- vertex_y_coordinate 1
    0,                        !- vertex_z_coordinate 1
    0,                        !- vertex_x_coordinate 2
    6.096,                    !- vertex_y_coordinate 2
    0,                        !- vertex_z_coordinate 2
    6.096,                    !- vertex_x_coordinate 3
    6.096,                    !- vertex_y_coordinate 3
    0,                        !- vertex_z_coordinate 3
    6.096,                    !- vertex_x_coordinate 4
    0,                        !- vertex_y_coordinate 4
    0;                        !- vertex_z_coordinate 4

BuildingSurface:Detailed,
    Zn001:Roof001,            !- name
    Roof,                     !- surface_type
    ROOF34,                   !- construction_name
    West Zone,                !- zone_name
    Outdoors,                 !- outside_boundary_condition
    ,                         !- outside_boundary_condition_object
    SunExposed,               !- sun_exposure
    WindExposed,              !- wind_exposure
    0,                        !- view_factor_to_ground
    4,                        !- number_of_vertices
    0,                        !- vertex_x_coordinate 1
    6.096,                    !- vertex_y_coordinate 1
    3.048,                    !- vertex_z_coordinate 1
    0,                        !- vertex_x_coordinate 2
    0,                        !- vertex_y_coordinate 2
    3.048,                    !- vertex_z_coordinate 2
    6.096,                    !- vertex_x_coordinate 3
    0,                        !- vertex_y_coordinate 3
    3.048,                    !- vertex_z_coordinate 3
    6.096,                    !- vertex_x_coordinate 4
    6.096,                    !- vertex_y_coordinate 4
    3.048;                    !- vertex_z_coordinate 4

BuildingSurface:Detailed,
    Zn002:Wall001,            !- name
    Wall,                     !- surface_type
    EXTWALL80,                !- construction_name
    EAST ZONE,                !- zone_name
    Outdoors,                 !- outside_boundary_condition
    ,                         !- outside_boundary_condition_object
    SunExposed,               !- sun_exposure
    WindExposed,              !- wind_exposure
    0.5,                      !- view_factor_to_ground
    4,                        !- number_of_vertices
    12.192,                   !- vertex_x_coordinate 1
    6.096,                    !- vertex_y_coordinate 1
    3.048,                    !- vertex_z_coordinate 1
    12.192,                   !- vertex_x_coordinate 2
    6.096,                    !- vertex_y_coordinate 2
    0,                        !- vertex_z_coordinate 2
    9.144,                    !- vertex_x_coordinate 3
    6.096,                    !- vertex_y_coordinate 3
    0,                        !- vertex_z_coordinate 3
    9.144,                    !- vertex_x_coordinate 4
    6.096,                    !- vertex_y_coordinate 4
    3.048;                    !- vertex_z_coordinate 4

BuildingSurface:Detailed,
    Zn002:Wall002,            !- name
    Wall,                     !- surface_type
    EXTWALL80,                !- construction_name
    EAST ZONE,                !- zone_name
    Outdoors,                 !- outside_boundary_condition
    ,                         !- outside_boundary_condition_object
    SunExposed,               !- sun_exposure
    WindExposed,              !- wind_exposure
    0.5,                      !- view_factor_to_ground
    4,                        !- number_of_vertices
    6.096,                    !- vertex_x_coordinate 1
    0,                        !- vertex_y_coordinate 1
    3.048,                    !- vertex_z_coordinate 1
    6.096,                    !- vertex_x_coordinate 2
    0,                        !- vertex_y_coordinate 2
    0,                        !- vertex_z_coordinate 2
    12.192,                   !- vertex_x_coordinate 3
    0,                        !- vertex_y_coordinate 3
    0,                        !- vertex_z_coordinate 3
    12.192,                   !- vertex_x_coordinate 4
    0,                        !- vertex_y_coordinate 4
    3.048;                    !- vertex_z_coordinate 4

BuildingSurface:Detailed,
    Zn002:Wall003,            !- name
    Wall,                     !- surface_type
    EXTWALL80,                !- construction_name
    EAST ZONE,                !- zone_name
    Outdoors,                 !- outside_boundary_condition
    ,                         !- outside_boundary_condition_object
    SunExposed,               !- sun_exposure
    WindExposed,              !- wind_exposure
    0.5,                      !- view_factor_to_ground
    4,                        !- number_of_vertices
    12.192,                   !- vertex_x_coordinate 1
    0,                        !- vertex_y_coordinate 1
    3.048,                    !- vertex_z_coordinate 1
    12.192,                   !- vertex_x_coordinate 2
    0,                        !- vertex_y_coordinate 2
    0,                        !- vertex_z_coordinate 2
    12.192,                   !- vertex_x_coordinate 3
    6.096,                    !- vertex_y_coordinate 3
    0,                        !- vertex_z_coordinate 3
    12.192,                   !- vertex_x_coordinate 4
    6.096,                    !- vertex_y_coordinate 4
    3.048;                    !- vertex_z_coordinate 4

BuildingSurface:Detailed,
    Zn002:Wall004,            !- name
    Wall,                     !- surface_type
    PARTITION06,              !- construction_name
    EAST ZONE,                !- zone_name
    Surface,                  !- outside_boundary_condition
    Zn001:Wall004,            !- outside_boundary_condition_object
    NoSun,                    !- sun_exposure
    NoWind,                   !- wind_exposure
    0.5,                      !- view_factor_to_ground
    4,                        !- number_of_vertices
    6.096,                    !- vertex_x_coordinate 1
    6.096,                    !- vertex_y_coordinate 1
    3.048,                    !- vertex_z_coordinate 1
    6.096,                    !- vertex_x_coordinate 2
    6.096,                    !- vertex_y_coordinate 2
    0,                        !- vertex_z_coordinate 2
    6.096,                    !- vertex_x_coordinate 3
    0,                        !- vertex_y_coordinate 3
    0,                        !- vertex_z_coordinate 3
    6.096,                    !- vertex_x_coordinate 4
    0,                        !- vertex_y_coordinate 4
    3.048;                    !- vertex_z_coordinate 4

BuildingSurface:Detailed,
    Zn002:Wall005,            !- name
    Wall,                     !- surface_type
    PARTITION06,              !- construction_name
    EAST ZONE,                !- zone_name
    Surface,                  !- outside_boundary_condition
    Zn003:Wall005,            !- outside_boundary_condition_object
    NoSun,                    !- sun_exposure
    NoWind,                   !- wind_exposure
    0.5,                      !- view_factor_to_ground
    4,                        !- number_of_vertices
    9.144,                    !- vertex_x_coordinate 1
    6.096,                    !- vertex_y_coordinate 1
    3.048,                    !- vertex_z_coordinate 1
    9.144,                    !- vertex_x_coordinate 2
    6.096,                    !- vertex_y_coordinate 2
    0,                        !- vertex_z_coordinate 2
    6.096,                    !- vertex_x_coordinate 3
    6.096,                    !- vertex_y_coordinate 3
    0,                        !- vertex_z_coordinate 3
    6.096,                    !- vertex_x_coordinate 4
    6.096,                    !- vertex_y_coordinate 4
    3.048;                    !- vertex_z_coordinate 4

BuildingSurface:Detailed,
    Zn002:Flr001,             !- name
    Floor,                    !- surface_type
    FLOOR SLAB 8 IN,          !- construction_name
    EAST ZONE,                !- zone_name
    Surface,                  !- outside_boundary_condition
    Zn002:Flr001,             !- outside_boundary_condition_object
    NoSun,                    !- sun_exposure
    NoWind,                   !- wind_exposure
    1.0,                      !- view_factor_to_ground
    4,                        !- number_of_vertices
    6.096,                    !- vertex_x_coordinate 1
    0,                        !- vertex_y_coordinate 1
    0,                        !- vertex_z_coordinate 1
    6.096,                    !- vertex_x_coordinate 2
    6.096,                    !- vertex_y_coordinate 2
    0,                        !- vertex_z_coordinate 2
    12.192,                   !- vertex_x_coordinate 3
    6.096,                    !- vertex_y_coordinate 3
    0,                        !- vertex_z_coordinate 3
    12.192,                   !- vertex_x_coordinate 4
    0,                        !- vertex_y_coordinate 4
    0;                        !- vertex_z_coordinate 4

BuildingSurface:Detailed,
    Zn002:Roof001,            !- name
    Roof,                     !- surface_type
    ROOF34,                   !- construction_name
    EAST ZONE,                !- zone_name
    Outdoors,                 !- outside_boundary_condition
    ,                         !- outside_boundary_condition_object
    SunExposed,               !- sun_exposure
    WindExposed,              !- wind_exposure
    0,                        !- view_factor_to_ground
    4,                        !- number_of_vertices
    6.096,                    !- vertex_x_coordinate 1
    6.096,                    !- vertex_y_coordinate 1
    3.048,                    !- vertex_z_coordinate 1
    6.096,                    !- vertex_x_coordinate 2
    0,                        !- vertex_y_coordinate 2
    3.048,                    !- vertex_z_coordinate 2
    12.192,                   !- vertex_x_coordinate 3
    0,                        !- vertex_y_coordinate 3
    3.048,                    !- vertex_z_coordinate 3
    12.192,                   !- vertex_x_coordinate 4
    6.096,                    !- vertex_y_coordinate 4
    3.048;                    !- vertex_z_coordinate 4

BuildingSurface:Detailed,
    Zn003:Wall001,            !- name
    Wall,                     !- surface_type
    EXTWALL80,                !- construction_name
    NORTH ZONE,               !- zone_name
    Outdoors,                 !- outside_boundary_condition
    ,                         !- outside_boundary_condition_object
    SunExposed,               !- sun_exposure
    WindExposed,              !- wind_exposure
    0.5,                      !- view_factor_to_ground
    4,                        !- number_of_vertices
    0,                        !- vertex_x_coordinate 1