Version,
    9.0;                      !- version_identifier

Building,
    Building,                 !- name
    30.0,                     !- north_axis
    City,                     !- terrain
    0.04,                     !- loads_convergence_tolerance_value
    0.4,                      !- temperature_convergence_tolerance_value
    FullExterior,             !- solar_distribution
    25,                       !- maximum_number_of_warmup_days
    6;                        !- minimum_number_of_warmup_days

Timestep,
    4;                        !- number_of_timesteps_per_hour

SurfaceConvectionAlgorithm:Inside,
    Simple;                   !- algorithm

SurfaceConvectionAlgorithm:Outside,
    SimpleCombined;           !- algorithm

HeatBalanceAlgorithm,
    ConductionTransferFunction; !- algorithm

GlobalGeometryRules,
    UpperLeftCorner,          !- starting_vertex_position
    CounterClockWise,         !- vertex_entry_direction
    relative;                 !- coordinate_system

ScheduleTypeLimits,
    Any Number;               !- name

ScheduleTypeLimits,
    Fraction,                 !- name
    0.0,                      !- lower_limit_value
    1.0,                      !- upper_limit_value
    CONTINUOUS;               !- numeric_type

ScheduleTypeLimits,
    Temperature,              !- name
    -60,                      !- lower_limit_value
    200,                      !- upper_limit_value
    CONTINUOUS,               !- numeric_type
    Temperature;              !- unit_type

ScheduleTypeLimits,
    Control Type,             !- name
    0,                        !- lower_limit_value
    4,                        !- upper_limit_value
    DISCRETE;                 !- numeric_type

ScheduleTypeLimits,
    On/Off,                   !- name
    0,                        !- lower_limit_value
    1,                        !- upper_limit_value
    DISCRETE;                 !- numeric_type

ScheduleTypeLimits,
    FlowRate,                 !- name
    0.0,                      !- lower_limit_value
    10,                       !- upper_limit_value
    CONTINUOUS;               !- numeric_type

RunPeriod,
    Feb 1 to 5,               !- name
    2,                        !- begin_month
    1,                        !- begin_day_of_month
    ,                         !- begin_year
    2,                        !- end_month
    5,                        !- end_day_of_month
    ,                         !- end_year
    Tuesday,                  !- day_of_week_for_start_day
    Yes,                      !- use_weather_file_holidays_and_special_days
    Yes,                      !- use_weather_file_daylight_saving_period
    No,                       !- apply_weekend_holiday_rule
    Yes,                      !- use_weather_file_rain_indicators
    Yes;                      !- use_weather_file_snow_indicators

RunPeriod,
    June 1 to 5,              !- name
    6,                        !- begin_month
    1,                        !- begin_day_of_month
    ,                         !- begin_year
    6,                        !- end_month
    5,                        !- end_day_of_month
    ,                         !- end_year
    Tuesday,                  !- day_of_week_for_start_day
    Yes,                      !- use_weather_file_holidays_and_special_days
    Yes,                      !- use_weather_file_daylight_saving_period
    No,                       !- apply_weekend_holiday_rule
    Yes,                      !- use_weather_file_rain_indicators
    Yes;                      !- use_weather_file_snow_indicators

Site:Location,
    CHICAGO_IL_USA TMY2-94846, !- name
    41.78,                    !- latitude
    -87.75,                   !- longitude
    -6.0,                     !- time_zone
    190.0;                    !- elevation

SimulationControl,
    Yes,                      !- do_zone_sizing_calculation
    Yes,                      !- do_system_sizing_calculation
    No,                       !- do_plant_sizing_calculation
    yes,                      !- run_simulation_for_sizing_periods
    no;                       !- run_simulation_for_weather_file_run_periods

SizingPeriod:DesignDay,
    CHICAGO_IL_USA Annual Heating 99% Design Conditions DB, !- name
    1,                        !- month
    8,                        !- day_of_month
    WinterDesignDay,          !- day_type
    -17.3,                    !- maximum_dry_bulb_temperature
    0.0,                      !- daily_dry_bulb_temperature_range
    ,                         !- dry_bulb_temperature_range_modifier_type
    ,                         !- dry_bulb_temperature_range_modifier_day_schedule_name
    Wetbulb,                  !- humidity_condition_type
    -17.3,                    !- wetbulb_or_dewpoint_at_maximum_dry_bulb
    ,                         !- humidity_condition_day_schedule_name
    ,                         !- humidity_ratio_at_maximum_dry_bulb
    ,                         !- enthalpy_at_maximum_dry_bulb
    ,                         !- daily_wet_bulb_temperature_range
    99063.0,                  !- barometric_pressure
    4.9,                      !- wind_speed
    270,                      !- wind_direction
    No,                       !- rain_indicator
    No,                       !- snow_indicator
    No,                       !- daylight_saving_time_indicator
    ASHRAEClearSky,           !- solar_model_indicator
    ,                         !- beam_solar_day_schedule_name
    ,                         !- diffuse_solar_day_schedule_name
    ,                         !- ashrae_clear_sky_optical_depth_for_beam_irradiance_taub_
    ,                         !- ashrae_clear_sky_optical_depth_for_diffuse_irradiance_taud_
    0.0;                      !- sky_clearness

SizingPeriod:DesignDay,
    CHICAGO Ann Clg .4% Condns WB=>MDB, !- name
    7,                        !- month
    21,                       !- day_of_month
    SummerDesignDay,          !- day_type
    31.2,                     !- maximum_dry_bulb_temperature
    10.7,                     !- daily_dry_bulb_temperature_range
    ,                         !- dry_bulb_temperature_range_modifier_type
    ,                         !- dry_bulb_temperature_range_modifier_day_schedule_name
    Wetbulb,                  !- humidity_condition_type
    25.5,                     !- wetbulb_or_dewpoint_at_maximum_dry_bulb
    ,                         !- humidity_condition_day_schedule_name
    ,                         !- humidity_ratio_at_maximum_dry_bulb
    ,                         !- enthalpy_at_maximum_dry_bulb
    ,                         !- daily_wet_bulb_temperature_range
    99063.0,                  !- barometric_pressure
    5.3,                      !- wind_speed
    230,                      !- wind_direction
    No,                       !- rain_indicator
    No,                       !- snow_indicator
    No,                       !- daylight_saving_time_indicator
    ASHRAEClearSky,           !- solar_model_indicator
    ,                         !- beam_solar_day_schedule_name
    ,                         !- diffuse_solar_day_schedule_name
    ,                         !- ashrae_clear_sky_optical_depth_for_beam_irradiance_taub_
    ,                         !- ashrae_clear_sky_optical_depth_for_diffuse_irradiance_taud_
    1.0;                      !- sky_clearness

Site:GroundTemperature:BuildingSurface,
    20.03,                    !- january_ground_temperature
    20.03,                    !- february_ground_temperature
    20.13,                    !- march_ground_temperature
    20.3,                     !- april_ground_temperature
    20.43,                    !- may_ground_temperature
    20.52,                    !- june_ground_temperature
    20.62,                    !- july_ground_temperature
    20.77,                    !- august_ground_temperature
    20.78,                    !- september_ground_temperature
    20.55,                    !- october_ground_temperature
    20.44,                    !- november_ground_temperature
    20.2;                     !- december_ground_temperature

Material,
    WD10,                     !- name
    MediumSmooth,             !- roughness
    0.667,                    !- thickness
    0.115,                    !- conductivity
    513,                      !- density
    1381,                     !- specific_heat
    0.9,                      !- thermal_absorptance
    0.78,                     !- solar_absorptance
    0.78;                     !- visible_absorptance

Material,
    RG01,                     !- name
    Rough,                    !- roughness
    0.0127,                   !- thickness
    1.442,                    !- conductivity
    881.0,                    !- density
    1674.0,                   !- specific_heat
    0.9,                      !- thermal_absorptance
    0.65,                     !- solar_absorptance
    0.65;                     !- visible_absorptance

Material,
    BR01,                     !- name
    VeryRough,                !- roughness
    0.0094999997,             !- thickness
    0.162,                    !- conductivity
    1121.0,                   !- density
    1464.0,                   !- specific_heat
    0.9,                      !- thermal_absorptance
    0.7,                      !- solar_absorptance
    0.7;                      !- visible_absorptance

Material,
    IN46,                     !- name
    VeryRough,                !- roughness
    0.076200001,              !- thickness
    0.023,                    !- conductivity
    24.0,                     !- density
    1590.0,                   !- specific_heat
    0.9,                      !- thermal_absorptance
    0.5,                      !- solar_absorptance
    0.5;                      !- visible_absorptance

Material,
    WD01,                     !- name
    MediumSmooth,             !- roughness
    0.019099999,              !- thickness
    0.115,                    !- conductivity
    513.0,                    !- density
    1381.0,                   !- specific_heat
    0.9,                      !- thermal_absorptance
    0.78,                     !- solar_absorptance
    0.78;                     !- visible_absorptance

Material,
    PW03,                     !- name
    MediumSmooth,             !- roughness
    0.0127,                   !- thickness
    0.115,                    !- conductivity
    545.0,                    !- density
    1213.0,                   !- specific_heat
    0.9,                      !- thermal_absorptance
    0.78,                     !- solar_absorptance
    0.78;                     !- visible_absorptance

Material,
    IN02,                     !- name
    Rough,                    !- roughness
    0.090099998,              !- thickness
    0.043000001,              !- conductivity
    10.0,                     !- density
    837.0,                    !- specific_heat
    0.9,                      !- thermal_absorptance
    0.75,                     !- solar_absorptance
    0.75;                     !- visible_absorptance

Material,
    GP01,                     !- name
    MediumSmooth,             !- roughness
    0.0127,                   !- thickness
    0.16,                     !- conductivity
    801.0,                    !- density
    837.0,                    !- specific_heat
    0.9,                      !- thermal_absorptance
    0.75,                     !- solar_absorptance
    0.75;                     !- visible_absorptance

Material,
    GP02,                     !- name
    MediumSmooth,             !- roughness
    0.015900001,              !- thickness
    0.16,                     !- conductivity
    801.0,                    !- density
    837.0,                    !- specific_heat
    0.9,                      !- thermal_absorptance
    0.75,                     !- solar_absorptance
    0.75;                     !- visible_absorptance

Material,
    CC03,                     !- name
    MediumRough,              !- roughness
    0.1016,                   !- thickness
    1.31,                     !- conductivity
    2243.0,                   !- density
    837.0,                    !- specific_heat
    0.9,                      !- thermal_absorptance
    0.65,                     !- solar_absorptance
    0.65;                     !- visible_absorptance

Material:NoMass,
    CP01,                     !- name
    Rough,                    !- roughness
    0.367,                    !- thermal_resistance
    0.9,                      !- thermal_absorptance
    0.75,                     !- solar_absorptance
    0.75;                     !- visible_absorptance

Material:NoMass,
    MAT-SB-U,                 !- name
    Rough,                    !- roughness
    0.117406666,              !- thermal_resistance
    0.65,                     !- thermal_absorptance
    0.65,                     !- solar_absorptance
    0.65;                     !- visible_absorptance

Material:NoMass,
    MAT-CLNG-1,               !- name
    Rough,                    !- roughness
    0.65225929,               !- thermal_resistance
    0.65,                     !- thermal_absorptance
    0.65,                     !- solar_absorptance
    0.65;                     !- visible_absorptance

Material:NoMass,
    MAT-FLOOR-1,              !- name
    Rough,                    !- roughness
    3.522199631,              !- thermal_resistance
    0.65,                     !- thermal_absorptance
    0.65,                     !- solar_absorptance
    0.65;                     !- visible_absorptance

Material:AirGap,
    AL21,                     !- name
    0.157;                    !- thermal_resistance

Material:AirGap,
    AL23,                     !- name
    0.153;                    !- thermal_resistance

Construction,
    ROOF-1,                   !- name
    RG01,                     !- outside_layer
    BR01,                     !- layer_2
    IN46,                     !- layer_3
    WD01;                     !- layer_4

Construction,
    WALL-1,                   !- name
    WD01,                     !- outside_layer
    PW03,                     !- layer_2
    IN02,                     !- layer_3
    GP01;                     !- layer_4

Construction,
    CLNG-1,                   !- name
    MAT-CLNG-1;               !- outside_layer

Construction,
    FLOOR-SLAB-1,             !- name
    CC03,                     !- outside_layer
    CP01;                     !- layer_2

Construction,
    INT-WALL-1,               !- name
    GP02,                     !- outside_layer
    AL21,                     !- layer_2
    GP02;                     !- layer_3

Construction,
    Dbl Clr 3mm/13mm Air,     !- name
    CLEAR 3MM,                !- outside_layer
    AIR 13MM,                 !- layer_2
    CLEAR 3MM;                !- layer_3

Construction,
    Sgl Grey 3mm,             !- name
    GREY 3MM;                 !- outside_layer

WindowMaterial:Gas,
    AIR 6MM,                  !- name
    Air,                      !- gas_type
    0.0063;                   !- thickness

WindowMaterial:Gas,
    AIR 13MM,                 !- name
    Air,                      !- gas_type
    0.0127;                   !- thickness

WindowMaterial:Gas,
    ARGON 13MM,               !- name
    Argon,                    !- gas_type
    0.0127;                   !- thickness

WindowMaterial:Glazing,
    CLEAR 3MM,                !- name
    SpectralAverage,          !- optical_data_type
    ,                         !- window_glass_spectral_data_set_name
    0.003,                    !- thickness
    0.837,                    !- solar_transmittance_at_normal_incidence
    0.075,                    !- front_side_solar_reflectance_at_normal_incidence
    0.075,                    !- back_side_solar_reflectance_at_normal_incidence
    0.898,                    !- visible_transmittance_at_normal_incidence
    0.081,                    !- front_side_visible_reflectance_at_normal_incidence
    0.081,                    !- back_side_visible_reflectance_at_normal_incidence
    0.0,                      !- infrared_transmittance_at_normal_incidence
    0.84,                     !- front_side_infrared_hemispherical_emissivity
    0.84,                     !- back_side_infrared_hemispherical_emissivity
    0.9;                      !- conductivity

WindowMaterial:Glazing,
    GREY 3MM,                 !- name
    SpectralAverage,          !- optical_data_type
    ,                         !- window_glass_spectral_data_set_name
    0.003,                    !- thickness
    0.626,                    !- solar_transmittance_at_normal_incidence
    0.061,                    !- front_side_solar_reflectance_at_normal_incidence
    0.061,                    !- back_side_solar_reflectance_at_normal_incidence
    0.611,                    !- visible_transmittance_at_normal_incidence
    0.061,                    !- front_side_visible_reflectance_at_normal_incidence
    0.061,                    !- back_side_visible_reflectance_at_normal_incidence
    0.0,                      !- infrared_transmittance_at_normal_incidence
    0.84,                     !- front_side_infrared_hemispherical_emissivity
    0.84,                     !- back_side_infrared_hemispherical_emissivity
    0.9;                      !- conductivity

WindowMaterial:Glazing,
    CLEAR 6MM,                !- name
    SpectralAverage,          !- optical_data_type
    ,                         !- window_glass_spectral_data_set_name
    0.006,                    !- thickness
    0.775,                    !- solar_transmittance_at_normal_incidence
    0.071,                    !- front_side_solar_reflectance_at_normal_incidence
    0.071,                    !- back_side_solar_reflectance_at_normal_incidence
    0.881,                    !- visible_transmittance_at_normal_incidence
    0.08,                     !- front_side_visible_reflectance_at_normal_incidence
    0.08,                     !- back_side_visible_reflectance_at_normal_incidence
    0.0,                      !- infrared_transmittance_at_normal_incidence
    0.84,                     !- front_side_infrared_hemispherical_emissivity
    0.84,                     !- back_side_infrared_hemispherical_emissivity
    0.9;                      !- conductivity

WindowMaterial:Glazing,
    LoE CLEAR 6MM,            !- name
    SpectralAverage,          !- optical_data_type
    ,                         !- window_glass_spectral_data_set_name
    0.006,                    !- thickness
    0.6,                      !- solar_transmittance_at_normal_incidence
    0.17,                     !- front_side_solar_reflectance_at_normal_incidence
    0.22,                     !- back_side_solar_reflectance_at_normal_incidence
    0.84,                     !- visible_transmittance_at_normal_incidence
    0.055,                    !- front_side_visible_reflectance_at_normal_incidence
    0.078,                    !- back_side_visible_reflectance_at_normal_incidence
    0.0,                      !- infrared_transmittance_at_normal_incidence
    0.84,                     !- front_side_infrared_hemispherical_emissivity
    0.1,                      !- back_side_infrared_hemispherical_emissivity
    0.9;                      !- conductivity

Schedule:Compact,
    OCCUPY-1,                 !- name
    Fraction,                 !- schedule_type_limits_name
    Through: 12/31,           !- field 1
    For: WeekDays SummerDesignDay CustomDay1 CustomDay2, !- field 2
    Until: 8:00,              !- field 3
    0.0,                      !- field 4
    Until: 11:00,             !- field 5
    1.00,                     !- field 6
    Until: 12:00,             !- field 7
    0.80,                     !- field 8
    Until: 13:00,             !- field 9
    0.40,                     !- field 10
    Until: 14:00,             !- field 11
    0.80,                     !- field 12
    Until: 18:00,             !- field 13
    1.00,                     !- field 14
    Until: 19:00,             !- field 15
    0.50,                     !- field 16
    Until: 21:00,             !- field 17
    0.10,                     !- field 18
    Until: 24:00,             !- field 19
    0.0,                      !- field 20
    For: Weekends WinterDesignDay Holiday, !- field 21
    Until: 24:00,             !- field 22
    0.0;                      !- field 23

Schedule:Compact,
    LIGHTS-1,                 !- name
    Fraction,                 !- schedule_type_limits_name
    Through: 12/31,           !- field 1
    For: WeekDays SummerDesignDay CustomDay1 CustomDay2, !- field 2
    Until: 8:00,              !- field 3
    0.05,                     !- field 4
    Until: 9:00,              !- field 5
    0.9,                      !- field 6
    Until: 10:00,             !- field 7
    0.95,                     !- field 8
    Until: 11:00,             !- field 9
    1.00,                     !- field 10
    Until: 12:00,             !- field 11
    0.95,                     !- field 12
    Until: 13:00,             !- field 13
    0.8,                      !- field 14
    Until: 14:00,             !- field 15
    0.9,                      !- field 16
    Until: 18:00,             !- field 17
    1.00,                     !- field 18
    Until: 19:00,             !- field 19
    0.60,                     !- field 20
    Until: 21:00,             !- field 21
    0.20,                     !- field 22
    Until: 24:00,             !- field 23
    0.05,                     !- field 24
    For: Weekends WinterDesignDay Holiday, !- field 25
    Until: 24:00,             !- field 26
    0.05;                     !- field 27

Schedule:Compact,
    EQUIP-1,                  !- name
    Fraction,                 !- schedule_type_limits_name
    Through: 12/31,           !- field 1
    For: WeekDays SummerDesignDay CustomDay1 CustomDay2, !- field 2
    Until: 8:00,              !- field 3
    0.02,                     !- field 4
    Until: 9:00,              !- field 5
    0.4,                      !- field 6
    Until: 14:00,             !- field 7
    0.9,                      !- field 8
    Until: 15:00,             !- field 9
    0.8,                      !- field 10
    Until: 16:00,             !- field 11
    0.7,                      !- field 12
    Until: 18:00,             !- field 13
    0.5,                      !- field 14
    Until: 20:00,             !- field 15
    0.3,                      !- field 16
    Until: 24:00,             !- field 17
    0.02,                     !- field 18
    For: Weekends WinterDesignDay Holiday, !- field 19
    Until: 24:00,             !- field 20
    0.2;                      !- field 21

Schedule:Compact,
    INFIL-SCH,                !- name
    Fraction,                 !- schedule_type_limits_name
    Through: 3/31,            !- field 1
    For: AllDays,             !- field 2
    Until: 24:00,             !- field 3
    1.0,                      !- field 4
    Through: 10/31,           !- field 5
    For: AllDays,             !- field 6
    Until: 24:00,             !- field 7
    1.0,                      !- field 8
    Through: 12/31,           !- field 9
    For: AllDays,             !- field 10
    Until: 24:00,             !- field 11
    1.0;                      !- field 12

Schedule:Compact,
    ActSchd,                  !- name
    Any Number,               !- schedule_type_limits_name
    Through: 12/31,           !- field 1
    For: AllDays,             !- field 2
    Until: 24:00,             !- field 3
    117.239997864;            !- field 4

Schedule:Compact,
    BasinHeaterSched,         !- name
    On/Off,                   !- schedule_type_limits_name
    Through: 1/31,            !- field 1
    For: AllDays,             !- field 2
    Until: 24:00,             !- field 3
    1.0,                      !- field 4
    Through: 2/2,             !- field 5
    For: AllDays,             !- field 6
    Until: 24:00,             !- field 7
    0.0,                      !- field 8
    Through: 12/31,           !- field 9
    For: AllDays,             !- field 10
    Until: 24:00,             !- field 11
    1.0;                      !- field 12

Schedule:Compact,
    ShadeTransSch,            !- name
    Fraction,                 !- schedule_type_limits_name
    Through: 12/31,           !- field 1
    For: AllDays,             !- field 2
    Until: 24:00,             !- field 3
    0.0;                      !- field 4

Schedule:Compact,
    Htg-SetP-Sch,             !- name
    Temperature,              !- schedule_type_limits_name
    Through: 12/31,           !- field 1
    For: SummerDesignDay,     !- field 2
    Until: 24:00,             !- field 3
    12.8,                     !- field 4
    For: WinterDesignDay,     !- field 5
    Until: 24:00,             !- field 6
    21.1,                     !- field 7
    For: WeekDays,            !- field 8
    Until: 7:00,              !- field 9
    12.8,                     !- field 10
    Until: 18:00,             !- field 11
    21.1,                     !- field 12
    Until: 24:00,             !- field 13
    12.8,                     !- field 14
    For: WeekEnds Holiday,    !- field 15
    Until: 7:00,              !- field 16
    12.8,                     !- field 17
    Until: 13:00,             !- field 18
    21.1,                     !- field 19
    Until: 24:00,             !- field 20
    12.8,                     !- field 21
    For: AllOtherDays,        !- field 22
    Until: 7:00,              !- field 23
    12.8,                     !- field 24
    Until: 18:00,             !- field 25
    21.1,                     !- field 26
    Until: 24:00,             !- field 27
    12.8;                     !- field 28

Schedule:Compact,
    PlenumHtg-SetP-Sch,       !- name
    Temperature,              !- schedule_type_limits_name
    Through: 12/31,           !- field 1
    For: AllDays,             !- field 2
    Until: 24:00,             !- field 3
    12.8;                     !- field 4

Schedule:Compact,
    Clg-SetP-Sch,             !- name
    Temperature,              !- schedule_type_limits_name
    Through: 12/31,           !- field 1
    For: SummerDesignDay,     !- field 2
    Until: 24:00,             !- field 3
    23.9,                     !- field 4
    For: WinterDesignDay,     !- field 5
    Until: 24:00,             !- field 6
    40.0,                     !- field 7
    For: WeekDays,            !- field 8
    Until: 7:00,              !- field 9
    40.0,                     !- field 10
    Until: 18:00,             !- field 11
    23.9,                     !- field 12
    Until: 24:00,             !- field 13
    40.0,                     !- field 14
    For: WeekEnds Holiday,    !- field 15
    Until: 7:00,              !- field 16
    40.0,                     !- field 17
    Until: 13:00,             !- field 18
    23.9,                     !- field 19
    Until: 24:00,             !- field 20
    32.2,                     !- field 21
    For: AllOtherDays,        !- field 22
    Until: 7:00,              !- field 23
    40.0,                     !- field 24
    Until: 18:00,             !- field 25
    23.9,                     !- field 26
    Until: 24:00,             !- field 27
    40.0;                     !- field 28

Schedule:Compact,
    PlenumClg-SetP-Sch,       !- name
    Temperature,              !- schedule_type_limits_name
    Through: 12/31,           !- field 1
    For: AllDays,             !- field 2
    Until: 24:00,             !- field 3
    40.0;                     !- field 4

Schedule:Compact,
    Zone Control Type Sched,  !- name
    Control Type,             !- schedule_type_limits_name
    Through: 12/31,           !- field 1
    For: SummerDesignDay,     !- field 2
    Until: 24:00,             !- field 3
    2,                        !- field 4
    For: WinterDesignDay,     !- field 5
    Until: 24:00,             !- field 6
    1,                        !- field 7
    For: AllOtherDays,        !- field 8
    Until: 24:00,             !- field 9
    4;                        !- field 10

Schedule:Compact,
    Min OA Sched,             !- name
    Fraction,                 !- schedule_type_limits_name
    Through: 12/31,           !- field 1
    For: Weekdays,            !- field 2
    Until: 6:00,              !- field 3
    0.3,                      !- field 4
    Until: 18:00,             !- field 5
    1.0,                      !- field 6
    Until: 24:00,             !- field 7
    0.3,                      !- field 8
    For: SummerDesignDay,     !- field 9
    Until: 24:00,             !- field 10
    1.0,                      !- field 11
    For: WinterDesignDay,     !- field 12
    Until: 24:00,             !- field 13
    1.0,                      !- field 14
    For: AllOtherDays,        !- field 15
    Until: 24:00,             !- field 16
    0.3;                      !- field 17

Schedule:Compact,
    FanAvailSched,            !- name
    Fraction,                 !- schedule_type_limits_name
    Through: 3/31,            !- field 1
    For: AllDays,             !- field 2
    Until: 24:00,             !- field 3
    1.0,                      !- field 4
    Through: 9/30,            !- field 5
    For: WeekDays,            !- field 6
    Until: 7:00,              !- field 7
    0.0,                      !- field 8
    Until: 17:00,             !- field 9
    1.0,                      !- field 10
    Until: 24:00,             !- field 11
    0.0,                      !- field 12
    For: SummerDesignDay WinterDesignDay, !- field 13
    Until: 24:00,             !- field 14
    1.0,                      !- field 15
    For: AllOtherDays,        !- field 16
    Until: 24:00,             !- field 17
    0.0,                      !- field 18
    Through: 12/31,           !- field 19
    For: AllDays,             !- field 20